REMARK  Name = 
REMARK  12 active torsions:
REMARK  status: ('A' for Active; 'I' for Inactive)
REMARK    1  A    between atoms: _4  and  _2
REMARK    2  A    between atoms: _7  and  _8
REMARK    3  A    between atoms: _8  and  _9
REMARK    4  A    between atoms: _12  and  _10
REMARK    5  A    between atoms: _12  and  _13
REMARK    6  A    between atoms: _16  and  _14
REMARK    7  A    between atoms: _16  and  _17
REMARK    8  A    between atoms: _16  and  _24
REMARK    9  A    between atoms: _17  and  _18
REMARK   10  A    between atoms: _24  and  _25
REMARK   11  A    between atoms: _25  and  _28
REMARK   12  A    between atoms: _28  and  _29
ROOT
ATOM      4  C2  UNL     1       1.500   0.000   0.000  0.00  0.00     0.000 A
ATOM      5  C3  UNL     1       0.750  -1.299   0.000  0.00  0.00     0.000 A
ATOM      6  C4  UNL     1      -0.750  -1.299   0.000  0.00  0.00     0.000 A
ATOM      7  C5  UNL     1      -1.500   0.000   0.000  0.00  0.00     0.000 A
ATOM     35  C25 UNL     1      -0.750   1.299   0.000  0.00  0.00     0.000 A
ATOM     36  C26 UNL     1       0.750   1.299   0.000  0.00  0.00     0.000 A
ENDROOT
BRANCH 4 2
ATOM      1  N1  UNL     1       3.750   1.299   0.000  0.00  0.00     0.000 N
ATOM      2  C1  UNL     1       3.000   0.000   0.000  0.00  0.00     0.000 C
ATOM      3  N2  UNL     1       3.750  -1.299   0.000  0.00  0.00     0.000 N
ENDBRANCH 4 2
BRANCH 7 8
ATOM      8  C6  UNL     1      -3.000   0.000   0.000  0.00  0.00     0.000 C
BRANCH 8 9
ATOM      9  N3  UNL     1      -3.750   1.299   0.000  0.00  0.00     0.000 N
ATOM     10  C7  UNL     1      -5.250   1.299   0.000  0.00  0.00     0.000 C
ATOM     11  O1  UNL     1      -6.000  -0.000   0.000  0.00  0.00     0.000 OA
BRANCH 10 12
ATOM     12  C8  UNL     1      -6.000   2.598   0.000  0.00  0.00     0.000 C
BRANCH 12 13
ATOM     13  N4  UNL     1      -7.500   2.598   0.000  0.00  0.00     0.000 N
ATOM     14  C9  UNL     1      -8.250   3.897   0.000  0.00  0.00     0.000 C
ATOM     15  O2  UNL     1      -7.500   5.196   0.000  0.00  0.00     0.000 OA
BRANCH 14 16
ATOM     16  C10 UNL     1      -9.750   3.897   0.000  0.00  0.00     0.000 C
BRANCH 16 17
ATOM     17  C11 UNL     1     -10.500   5.196   0.000  0.00  0.00     0.000 C
BRANCH 17 18
ATOM     18  C12 UNL     1     -12.000   5.196   0.000  0.00  0.00     0.000 A
ATOM     19  C13 UNL     1     -12.750   6.495   0.000  0.00  0.00     0.000 A
ATOM     20  C14 UNL     1     -14.250   6.495   0.000  0.00  0.00     0.000 A
ATOM     21  C15 UNL     1     -15.000   5.196   0.000  0.00  0.00     0.000 A
ATOM     22  C16 UNL     1     -14.250   3.897   0.000  0.00  0.00     0.000 A
ATOM     23  C17 UNL     1     -12.750   3.897   0.000  0.00  0.00     0.000 A
ENDBRANCH 17 18
ENDBRANCH 16 17
BRANCH 16 24
ATOM     24  N5  UNL     1     -10.500   2.598   0.000  0.00  0.00     0.000 N
BRANCH 24 25
ATOM     25  S1  UNL     1      -9.750   1.299   0.000  0.00  0.00     0.000 S
ATOM     26  O3  UNL     1      -8.451   2.049   0.000  0.00  0.00     0.000 OA
ATOM     27  O4  UNL     1     -11.049   0.549   0.000  0.00  0.00     0.000 OA
BRANCH 25 28
ATOM     28  C18 UNL     1      -9.000  -0.000   0.000  0.00  0.00     0.000 C
BRANCH 28 29
ATOM     29  C19 UNL     1      -9.750  -1.299   0.000  0.00  0.00     0.000 A
ATOM     30  C20 UNL     1      -9.000  -2.598   0.000  0.00  0.00     0.000 A
ATOM     31  C21 UNL     1      -9.750  -3.897   0.000  0.00  0.00     0.000 A
ATOM     32  C22 UNL     1     -11.250  -3.897   0.000  0.00  0.00     0.000 A
ATOM     33  C23 UNL     1     -12.000  -2.598   0.000  0.00  0.00     0.000 A
ATOM     34  C24 UNL     1     -11.250  -1.299   0.000  0.00  0.00     0.000 A
ENDBRANCH 28 29
ENDBRANCH 25 28
ENDBRANCH 24 25
ENDBRANCH 16 24
ENDBRANCH 14 16
ENDBRANCH 12 13
ENDBRANCH 10 12
ENDBRANCH 8 9
ENDBRANCH 7 8
TORSDOF 12