ligand_00_docked
  PyMOL2.5          3D                             0

 36 38  0  0  0  0  0  0  0  0999 V2000
  146.4080  -22.3720   97.2540 C   0  0  0  0  0  0  0  0  0  0  0  0
  147.1680  -23.3710   98.0740 N   0  0  0  0  0  0  0  0  0  0  0  0
  144.4010  -24.0800   89.8990 O   0  0  0  0  0  0  0  0  0  0  0  0
  142.3210  -16.5440   90.3430 S   0  0  0  0  0  0  0  0  0  0  0  0
  145.5810  -22.8310   96.0900 C   0  0  0  0  0  0  0  0  0  0  0  0
  146.4770  -20.9130   97.5960 N   0  0  0  0  0  0  0  0  0  0  0  0
  142.5580  -20.1500   91.4290 O   0  0  0  0  0  0  0  0  0  0  0  0
  146.1600  -23.7830   95.0860 C   0  0  0  0  0  0  0  0  0  0  0  0
  142.6200  -23.2150   91.5800 N   0  0  0  0  0  0  0  0  0  0  0  0
  143.4360  -16.1860   91.2800 O   0  0  0  0  0  0  0  0  0  0  0  0
  145.3330  -24.2420   93.9230 C   0  0  0  0  0  0  0  0  0  0  0  0
  143.4680  -20.8250   89.0910 N   0  0  0  0  0  0  0  0  0  0  0  0
  141.2060  -16.9030   89.4060 O   0  0  0  0  0  0  0  0  0  0  0  0
  143.9260  -23.7480   93.7620 C   0  0  0  0  0  0  0  0  0  0  0  0
  143.2840  -17.3210   89.4940 N   0  0  0  0  0  0  0  0  0  0  0  0
  143.0980  -24.2070   92.5980 C   0  0  0  0  0  0  0  0  0  0  0  0
  143.2710  -23.1510   90.2310 C   0  0  0  0  0  0  0  0  0  0  0  0
  142.7930  -22.1590   89.2130 C   0  0  0  0  0  0  0  0  0  0  0  0
  143.3510  -19.8210   90.1990 C   0  0  0  0  0  0  0  0  0  0  0  0
  144.0260  -18.4870   90.0770 C   0  0  0  0  0  0  0  0  0  0  0  0
  145.4430  -18.3190   90.5380 C   0  0  0  0  0  0  0  0  0  0  0  0
  145.8660  -18.8530   91.8750 C   0  0  0  0  0  0  0  0  0  0  0  0
  147.0900  -19.7120   91.9860 C   0  0  0  0  0  0  0  0  0  0  0  0
  147.5120  -20.2460   93.3230 C   0  0  0  0  0  0  0  0  0  0  0  0
  146.7100  -19.9220   94.5480 C   0  0  0  0  0  0  0  0  0  0  0  0
  145.4860  -19.0630   94.4360 C   0  0  0  0  0  0  0  0  0  0  0  0
  145.0630  -18.5280   93.1000 C   0  0  0  0  0  0  0  0  0  0  0  0
  141.3580  -15.7680   91.1920 C   0  0  0  0  0  0  0  0  0  0  0  0
  140.5510  -16.4700   92.2430 C   0  0  0  0  0  0  0  0  0  0  0  0
  139.7130  -15.6740   93.2000 C   0  0  0  0  0  0  0  0  0  0  0  0
  138.9060  -16.3760   94.2520 C   0  0  0  0  0  0  0  0  0  0  0  0
  138.9350  -17.8730   94.3450 C   0  0  0  0  0  0  0  0  0  0  0  0
  139.7730  -18.6680   93.3880 C   0  0  0  0  0  0  0  0  0  0  0  0
  140.5800  -17.9660   92.3370 C   0  0  0  0  0  0  0  0  0  0  0  0
  143.3460  -22.7960   94.7650 C   0  0  0  0  0  0  0  0  0  0  0  0
  144.1730  -22.3370   95.9290 C   0  0  0  0  0  0  0  0  0  0  0  0
  1  5  1  0  0  0  0
  1  6  1  0  0  0  0
  1  2  1  0  0  0  0
  4 10  1  0  0  0  0
  4 13  1  0  0  0  0
  4 28  1  0  0  0  0
  5  8  1  0  0  0  0
  5 36  1  0  0  0  0
  8 11  1  0  0  0  0
  9 17  1  0  0  0  0
 11 14  1  0  0  0  0
 12 19  1  0  0  0  0
 14 16  1  0  0  0  0
 14 35  1  0  0  0  0
  4 15  1  0  0  0  0
  9 16  1  0  0  0  0
  3 17  1  0  0  0  0
 17 18  1  0  0  0  0
 12 18  1  0  0  0  0
  7 19  1  0  0  0  0
 19 20  1  0  0  0  0
 15 20  1  0  0  0  0
 20 21  1  0  0  0  0
 21 22  1  0  0  0  0
 22 23  1  0  0  0  0
 22 27  1  0  0  0  0
 23 24  1  0  0  0  0
 24 25  1  0  0  0  0
 25 26  1  0  0  0  0
 26 27  1  0  0  0  0
 28 29  1  0  0  0  0
 29 30  1  0  0  0  0
 29 34  1  0  0  0  0
 30 31  1  0  0  0  0
 31 32  1  0  0  0  0
 32 33  1  0  0  0  0
 33 34  1  0  0  0  0
 35 36  1  0  0  0  0
M  END
$$$$
